Version 4
SHEET 1 996 796
WIRE 656 -48 560 -48
WIRE 784 -48 736 -48
WIRE 464 16 304 16
WIRE -176 32 -416 32
WIRE -64 32 -176 32
WIRE 304 48 304 16
WIRE -160 64 -320 64
WIRE -64 64 -160 64
WIRE 160 64 80 64
WIRE 256 64 160 64
WIRE -112 96 -224 96
WIRE -64 96 -112 96
WIRE 160 96 80 96
WIRE 672 112 672 80
WIRE -112 128 -144 128
WIRE -64 128 -112 128
WIRE 464 128 464 16
WIRE 512 128 464 128
WIRE 560 128 560 -48
WIRE 560 128 512 128
WIRE 640 128 560 128
WIRE 784 144 784 -48
WIRE 784 144 704 144
WIRE 816 144 784 144
WIRE 640 160 576 160
WIRE 576 192 576 160
WIRE 672 224 672 176
WIRE -592 592 -832 592
WIRE -64 592 -592 592
WIRE -576 624 -736 624
WIRE -64 624 -576 624
WIRE 224 640 128 640
WIRE -528 656 -640 656
WIRE -64 656 -528 656
WIRE 224 672 128 672
WIRE -528 688 -560 688
WIRE -64 688 -528 688
WIRE -64 720 -192 720
FLAG -224 128 0
FLAG -304 96 0
FLAG -400 64 0
FLAG -496 32 0
FLAG -176 32 Vin1
FLAG -160 64 Vin2
FLAG -112 96 Vin3
FLAG -112 128 Vin4
FLAG 160 64 Vout+
FLAG 160 96 Vout-
FLAG 304 128 0
FLAG 256 112 0
FLAG 672 304 0
FLAG 672 0 0
FLAG 576 272 0
FLAG 512 128 Sum
FLAG 816 144 Out
FLAG -640 688 0
FLAG -720 656 0
FLAG -816 624 0
FLAG -912 592 0
FLAG -592 592 Vin5
FLAG -576 624 Vin6
FLAG -528 656 Vin7
FLAG -528 688 Vin8
FLAG -272 720 0
SYMBOL 4_Bit_DAC 0 80 R0
SYMATTR InstName X1
SYMBOL voltage -400 32 R90
WINDOW 0 -32 56 VBottom 2
WINDOW 3 -12 339 VTop 2
WINDOW 123 0 0 Left 0
WINDOW 39 0 0 Left 0
SYMATTR InstName V1
SYMATTR Value PULSE(0 5 0 1ps 1ps 5us 10us)
SYMBOL voltage -304 64 R90
WINDOW 0 -32 56 VBottom 2
WINDOW 3 26 326 VTop 2
WINDOW 123 0 0 Left 0
WINDOW 39 0 0 Left 0
SYMATTR InstName V2
SYMATTR Value PULSE(0 5 0 1ps 1ps 10us 20us)
SYMBOL voltage -208 96 R90
WINDOW 0 -32 56 VBottom 2
WINDOW 3 36 262 VTop 2
WINDOW 123 0 0 Left 0
WINDOW 39 0 0 Left 0
SYMATTR InstName V3
SYMATTR Value PULSE(0 5 0 1ps 1ps 20us 40us)
SYMBOL voltage -128 128 R90
WINDOW 0 -32 56 VBottom 2
WINDOW 3 32 56 VTop 2
WINDOW 123 0 0 Left 0
WINDOW 39 0 0 Left 0
SYMATTR InstName V4
SYMATTR Value PULSE(0 5 0 1ps 1ps 40us 80us)
SYMBOL g 304 32 R0
WINDOW 0 33 49 Left 2
SYMATTR InstName G1
SYMATTR Value 1
SYMBOL res 640 -32 R270
WINDOW 0 32 56 VTop 2
WINDOW 3 0 56 VBottom 2
SYMATTR InstName R3
SYMATTR Value 2.5k
SYMBOL voltage 672 208 R0
WINDOW 123 0 0 Left 0
WINDOW 39 0 0 Left 0
SYMATTR InstName V9
SYMATTR Value 10
SYMBOL voltage 672 96 R180
WINDOW 0 24 96 Left 2
WINDOW 3 24 16 Left 2
WINDOW 123 0 0 Left 0
WINDOW 39 0 0 Left 0
SYMATTR InstName V10
SYMATTR Value 10
SYMBOL res 560 176 R0
SYMATTR InstName R4
SYMATTR Value 1k
SYMBOL OpAmps\\UniversalOpAmp 672 144 R0
SYMATTR InstName U1
SYMBOL 4_Bit_DACV1 32 672 R0
SYMATTR InstName X2
SYMBOL voltage -816 592 R90
WINDOW 0 -32 56 VBottom 2
WINDOW 3 28 91 VTop 2
WINDOW 123 0 0 Left 0
WINDOW 39 0 0 Left 0
SYMATTR InstName V5
SYMATTR Value 1
SYMBOL voltage -720 624 R90
WINDOW 0 -32 56 VBottom 2
WINDOW 3 39 67 VTop 2
WINDOW 123 0 0 Left 0
WINDOW 39 0 0 Left 0
SYMATTR InstName V6
SYMATTR Value 1
SYMBOL voltage -624 656 R90
WINDOW 0 -32 56 VBottom 2
WINDOW 3 62 56 VBottom 2
WINDOW 123 0 0 Left 0
WINDOW 39 0 0 Left 0
SYMATTR InstName V7
SYMATTR Value 1
SYMBOL voltage -544 688 R90
WINDOW 0 -32 56 VBottom 2
WINDOW 3 32 56 VTop 2
WINDOW 123 0 0 Left 0
WINDOW 39 0 0 Left 0
SYMATTR InstName V8
SYMATTR Value 0
SYMBOL voltage -176 720 R90
WINDOW 0 -32 56 VBottom 2
WINDOW 3 44 155 VTop 2
WINDOW 123 0 0 Left 0
WINDOW 39 0 0 Left 0
SYMATTR InstName V11
SYMATTR Value PULSE(0 5 0 1ps 1ps 10us 20us)
TEXT -1544 16 Left 2 !.tran 350us
