Version 4
SHEET 1 3164 1116
WIRE -720 -160 -960 -160
WIRE -192 -160 -720 -160
WIRE -704 -128 -864 -128
WIRE -192 -128 -704 -128
WIRE 2752 -128 2592 -128
WIRE 128 -112 0 -112
WIRE 272 -112 208 -112
WIRE -656 -96 -768 -96
WIRE -192 -96 -656 -96
WIRE 2592 -96 2592 -128
WIRE 64 -80 0 -80
WIRE -656 -64 -688 -64
WIRE -192 -64 -656 -64
WIRE -256 -32 -320 -32
WIRE -192 -32 -256 -32
WIRE 1808 48 1712 48
WIRE 1936 48 1872 48
WIRE 1712 160 1712 48
WIRE 1808 160 1712 160
WIRE 1936 160 1936 48
WIRE 1936 160 1888 160
WIRE 544 192 448 192
WIRE 672 192 608 192
WIRE -720 224 -960 224
WIRE -192 224 -720 224
WIRE 2944 240 2848 240
WIRE 3072 240 3024 240
WIRE -704 256 -864 256
WIRE -192 256 -704 256
WIRE 2752 256 2752 -128
WIRE 2752 256 2592 256
WIRE 128 272 0 272
WIRE 272 272 272 -112
WIRE 272 272 208 272
WIRE -656 288 -768 288
WIRE -192 288 -656 288
WIRE 2592 288 2592 256
WIRE 448 304 448 192
WIRE 544 304 448 304
WIRE 672 304 672 192
WIRE 672 304 624 304
WIRE -656 320 -688 320
WIRE -192 320 -656 320
WIRE 1824 320 1824 288
WIRE 1712 336 1712 160
WIRE 1712 336 1696 336
WIRE 1792 336 1712 336
WIRE -256 352 -320 352
WIRE -192 352 -256 352
WIRE 1936 352 1936 160
WIRE 1936 352 1856 352
WIRE 1968 352 1936 352
WIRE 1792 368 1728 368
WIRE 672 384 672 304
WIRE 672 384 528 384
WIRE 704 384 672 384
WIRE 272 400 272 272
WIRE 304 400 272 400
WIRE 448 400 448 304
WIRE 448 400 384 400
WIRE 480 400 448 400
WIRE 1728 400 1728 368
WIRE 2960 400 2960 368
WIRE 2752 416 2752 256
WIRE 2800 416 2752 416
WIRE 2848 416 2848 240
WIRE 2848 416 2800 416
WIRE 2928 416 2848 416
WIRE 1824 432 1824 384
WIRE 3072 432 3072 240
WIRE 3072 432 2992 432
WIRE 3104 432 3072 432
WIRE 2928 448 2864 448
WIRE 2864 480 2864 448
WIRE 480 496 480 448
WIRE 528 496 528 464
WIRE 2960 512 2960 464
WIRE -720 528 -960 528
WIRE -192 528 -720 528
WIRE -704 560 -864 560
WIRE -192 560 -704 560
WIRE 2752 560 2752 416
WIRE 2752 560 2592 560
WIRE 128 576 0 576
WIRE 272 576 272 400
WIRE 272 576 208 576
WIRE -656 592 -768 592
WIRE -192 592 -656 592
WIRE 2592 592 2592 560
WIRE -656 624 -688 624
WIRE -192 624 -656 624
WIRE -256 656 -320 656
WIRE -192 656 -256 656
WIRE -720 912 -960 912
WIRE -192 912 -720 912
WIRE -704 944 -864 944
WIRE -192 944 -704 944
WIRE 2752 944 2752 560
WIRE 2752 944 2592 944
WIRE 128 960 0 960
WIRE 272 960 272 576
WIRE 272 960 208 960
WIRE -656 976 -768 976
WIRE -192 976 -656 976
WIRE 2592 976 2592 944
WIRE -656 1008 -688 1008
WIRE -192 1008 -656 1008
WIRE -256 1040 -320 1040
WIRE -192 1040 -256 1040
FLAG 2592 -16 0
FLAG 2544 -32 0
FLAG 2960 592 0
FLAG 2960 288 0
FLAG 2864 560 0
FLAG 2800 416 Sum
FLAG 3104 432 Out
FLAG -768 -64 0
FLAG -848 -96 0
FLAG -944 -128 0
FLAG -1040 -160 0
FLAG -720 -160 Vin5
FLAG -704 -128 Vin6
FLAG -656 -96 Vin7
FLAG -656 -64 Vin8
FLAG -400 -32 0
FLAG 2592 368 0
FLAG 2544 352 0
FLAG -768 320 0
FLAG -848 288 0
FLAG -944 256 0
FLAG -1040 224 0
FLAG -720 224 Vin1
FLAG -704 256 Vin2
FLAG -656 288 Vin3
FLAG -656 320 Vin4
FLAG -400 352 0
FLAG 2592 672 0
FLAG 2544 656 0
FLAG -768 624 0
FLAG -848 592 0
FLAG -944 560 0
FLAG -1040 528 0
FLAG -720 528 Vin13
FLAG -704 560 Vin14
FLAG -656 592 Vin15
FLAG -656 624 Vin16
FLAG -400 656 0
FLAG 2592 1056 0
FLAG 2544 1040 0
FLAG -768 1008 0
FLAG -848 976 0
FLAG -944 944 0
FLAG -1040 912 0
FLAG -720 912 Vin18
FLAG -704 944 Vin19
FLAG -656 976 Vin20
FLAG -656 1008 Vin21
FLAG -400 1040 0
FLAG 1824 512 0
FLAG 1824 208 0
FLAG 1728 480 0
FLAG 272 400 Sum
FLAG 704 384 Out1
FLAG -256 656 Vsource3
FLAG -256 -32 Vsource1
FLAG -256 352 Vsource2
FLAG -256 1040 Vsource4
FLAG 480 496 0
FLAG 528 496 0
SYMBOL g 2592 -112 R0
WINDOW 0 33 49 Left 2
SYMATTR InstName G1
SYMATTR Value 1
SYMBOL res 2928 256 R270
WINDOW 0 32 56 VTop 2
WINDOW 3 0 56 VBottom 2
SYMATTR InstName R3
SYMATTR Value 2.5k
SYMBOL voltage 2960 496 R0
WINDOW 123 0 0 Left 0
WINDOW 39 0 0 Left 0
SYMATTR InstName V9
SYMATTR Value 10
SYMBOL voltage 2960 384 R180
WINDOW 0 24 96 Left 2
WINDOW 3 24 16 Left 2
WINDOW 123 0 0 Left 0
WINDOW 39 0 0 Left 0
SYMATTR InstName V10
SYMATTR Value 10
SYMBOL res 2848 464 R0
SYMATTR InstName R4
SYMATTR Value 1k
SYMBOL OpAmps\\UniversalOpAmp 2960 432 R0
SYMATTR InstName U1
SYMBOL 4_Bit_DACV1 -96 -80 R0
SYMATTR InstName X2
SYMBOL voltage -944 -160 R90
WINDOW 0 -32 56 VBottom 2
WINDOW 3 28 91 VTop 2
WINDOW 123 0 0 Left 0
WINDOW 39 0 0 Left 0
SYMATTR InstName V5
SYMATTR Value 1
SYMBOL voltage -848 -128 R90
WINDOW 0 -32 56 VBottom 2
WINDOW 3 39 67 VTop 2
WINDOW 123 0 0 Left 0
WINDOW 39 0 0 Left 0
SYMATTR InstName V6
SYMATTR Value 1
SYMBOL voltage -752 -96 R90
WINDOW 0 -32 56 VBottom 2
WINDOW 3 62 56 VBottom 2
WINDOW 123 0 0 Left 0
WINDOW 39 0 0 Left 0
SYMATTR InstName V7
SYMATTR Value 1
SYMBOL voltage -672 -64 R90
WINDOW 0 -32 56 VBottom 2
WINDOW 3 32 56 VTop 2
WINDOW 123 0 0 Left 0
WINDOW 39 0 0 Left 0
SYMATTR InstName V8
SYMATTR Value 1
SYMBOL voltage -304 -32 R90
WINDOW 0 -32 56 VBottom 2
WINDOW 3 44 155 VTop 2
WINDOW 123 0 0 Left 0
WINDOW 39 0 0 Left 0
SYMATTR InstName V11
SYMATTR Value PULSE(0 5 0 1ps 1ps 5us 10us)
SYMBOL g 2592 272 R0
WINDOW 0 33 49 Left 2
SYMATTR InstName G2
SYMATTR Value 1
SYMBOL 4_Bit_DACV1 -96 304 R0
SYMATTR InstName X1
SYMBOL voltage -944 224 R90
WINDOW 0 -32 56 VBottom 2
WINDOW 3 28 91 VTop 2
WINDOW 123 0 0 Left 0
WINDOW 39 0 0 Left 0
SYMATTR InstName V1
SYMATTR Value 1
SYMBOL voltage -848 256 R90
WINDOW 0 -32 56 VBottom 2
WINDOW 3 39 67 VTop 2
WINDOW 123 0 0 Left 0
WINDOW 39 0 0 Left 0
SYMATTR InstName V2
SYMATTR Value 1
SYMBOL voltage -752 288 R90
WINDOW 0 -32 56 VBottom 2
WINDOW 3 62 56 VBottom 2
WINDOW 123 0 0 Left 0
WINDOW 39 0 0 Left 0
SYMATTR InstName V3
SYMATTR Value 1
SYMBOL voltage -672 320 R90
WINDOW 0 -32 56 VBottom 2
WINDOW 3 32 56 VTop 2
WINDOW 123 0 0 Left 0
WINDOW 39 0 0 Left 0
SYMATTR InstName V4
SYMATTR Value 1
SYMBOL voltage -304 352 R90
WINDOW 0 -32 56 VBottom 2
WINDOW 3 44 155 VTop 2
WINDOW 123 0 0 Left 0
WINDOW 39 0 0 Left 0
SYMATTR InstName V12
SYMATTR Value PULSE(0 5 0 1ps 1ps 10us 20us)
SYMBOL g 2592 576 R0
WINDOW 0 33 49 Left 2
SYMATTR InstName G3
SYMATTR Value 1
SYMBOL 4_Bit_DACV1 -96 608 R0
SYMATTR InstName X3
SYMBOL voltage -944 528 R90
WINDOW 0 -32 56 VBottom 2
WINDOW 3 28 91 VTop 2
WINDOW 123 0 0 Left 0
WINDOW 39 0 0 Left 0
SYMATTR InstName V13
SYMATTR Value 1
SYMBOL voltage -848 560 R90
WINDOW 0 -32 56 VBottom 2
WINDOW 3 39 67 VTop 2
WINDOW 123 0 0 Left 0
WINDOW 39 0 0 Left 0
SYMATTR InstName V14
SYMATTR Value 1
SYMBOL voltage -752 592 R90
WINDOW 0 -32 56 VBottom 2
WINDOW 3 62 56 VBottom 2
WINDOW 123 0 0 Left 0
WINDOW 39 0 0 Left 0
SYMATTR InstName V15
SYMATTR Value 1
SYMBOL voltage -672 624 R90
WINDOW 0 -32 56 VBottom 2
WINDOW 3 32 56 VTop 2
WINDOW 123 0 0 Left 0
WINDOW 39 0 0 Left 0
SYMATTR InstName V16
SYMATTR Value 0
SYMBOL voltage -304 656 R90
WINDOW 0 -32 56 VBottom 2
WINDOW 3 44 155 VTop 2
WINDOW 123 0 0 Left 0
WINDOW 39 0 0 Left 0
SYMATTR InstName V17
SYMATTR Value PULSE(0 5 0 1ps 1ps 20us 40us)
SYMBOL g 2592 960 R0
WINDOW 0 33 49 Left 2
SYMATTR InstName G4
SYMATTR Value 1
SYMBOL 4_Bit_DACV1 -96 992 R0
SYMATTR InstName X4
SYMBOL voltage -944 912 R90
WINDOW 0 -32 56 VBottom 2
WINDOW 3 28 91 VTop 2
WINDOW 123 0 0 Left 0
WINDOW 39 0 0 Left 0
SYMATTR InstName V18
SYMATTR Value 1
SYMBOL voltage -848 944 R90
WINDOW 0 -32 56 VBottom 2
WINDOW 3 39 67 VTop 2
WINDOW 123 0 0 Left 0
WINDOW 39 0 0 Left 0
SYMATTR InstName V19
SYMATTR Value 1
SYMBOL voltage -752 976 R90
WINDOW 0 -32 56 VBottom 2
WINDOW 3 62 56 VBottom 2
WINDOW 123 0 0 Left 0
WINDOW 39 0 0 Left 0
SYMATTR InstName V20
SYMATTR Value 1
SYMBOL voltage -672 1008 R90
WINDOW 0 -32 56 VBottom 2
WINDOW 3 32 56 VTop 2
WINDOW 123 0 0 Left 0
WINDOW 39 0 0 Left 0
SYMATTR InstName V21
SYMATTR Value 1
SYMBOL voltage -304 1040 R90
WINDOW 0 -32 56 VBottom 2
WINDOW 3 44 155 VTop 2
WINDOW 123 0 0 Left 0
WINDOW 39 0 0 Left 0
SYMATTR InstName V22
SYMATTR Value PULSE(0 5 0 1ps 1ps 40us 80us)
SYMBOL res 1792 176 R270
WINDOW 0 32 56 VTop 2
WINDOW 3 0 56 VBottom 2
SYMATTR InstName R1
SYMATTR Value 10k
SYMBOL voltage 1824 416 R0
WINDOW 123 0 0 Left 0
WINDOW 39 0 0 Left 0
SYMATTR InstName V23
SYMATTR Value 10
SYMBOL voltage 1824 304 R180
WINDOW 0 24 96 Left 2
WINDOW 3 24 16 Left 2
WINDOW 123 0 0 Left 0
WINDOW 39 0 0 Left 0
SYMATTR InstName V24
SYMATTR Value 10
SYMBOL res 1712 384 R0
SYMATTR InstName R2
SYMATTR Value 1k
SYMBOL OpAmps\\UniversalOpAmp 1824 352 R0
SYMATTR InstName U2
SYMBOL cap 1872 32 R90
WINDOW 0 0 32 VBottom 2
WINDOW 3 32 32 VTop 2
SYMATTR InstName C1
SYMATTR Value 10pF
SYMBOL res 224 -128 R90
WINDOW 0 0 56 VBottom 2
WINDOW 3 32 56 VTop 2
SYMATTR InstName R5
SYMATTR Value 1.25k
SYMBOL res 224 256 R90
WINDOW 0 0 56 VBottom 2
WINDOW 3 32 56 VTop 2
SYMATTR InstName R6
SYMATTR Value 2.5k
SYMBOL res 224 560 R90
WINDOW 0 0 56 VBottom 2
WINDOW 3 32 56 VTop 2
SYMATTR InstName R7
SYMATTR Value 5k
SYMBOL res 224 944 R90
WINDOW 0 0 56 VBottom 2
WINDOW 3 32 56 VTop 2
SYMATTR InstName R8
SYMATTR Value 10k
SYMBOL res 288 416 R270
WINDOW 0 32 56 VTop 2
WINDOW 3 0 56 VBottom 2
SYMATTR InstName Sum
SYMATTR Value 1
SYMBOL e 528 480 M180
SYMATTR InstName E1
SYMATTR Value 1
SYMBOL res 528 320 R270
WINDOW 0 32 56 VTop 2
WINDOW 3 0 56 VBottom 2
SYMATTR InstName R9
SYMATTR Value 10k
SYMBOL cap 608 176 R90
WINDOW 0 0 32 VBottom 2
WINDOW 3 32 32 VTop 2
SYMATTR InstName C2
SYMATTR Value 10pF
TEXT -1008 48 Left 2 !.tran 350us
