Version 4
SHEET 1 932 680
WIRE -720 -576 -896 -576
WIRE -576 -576 -720 -576
WIRE -576 -544 -816 -544
WIRE -576 -512 -752 -512
WIRE -304 -512 -432 -512
WIRE -576 -480 -688 -480
WIRE -576 -448 -608 -448
WIRE -80 -368 -112 -368
WIRE 32 -368 -16 -368
WIRE -720 -352 -896 -352
WIRE -576 -352 -720 -352
WIRE -576 -320 -816 -320
WIRE -576 -288 -752 -288
WIRE -304 -288 -304 -512
WIRE -304 -288 -432 -288
WIRE -112 -272 -112 -368
WIRE -80 -272 -112 -272
WIRE 16 -272 0 -272
WIRE 32 -272 32 -368
WIRE 32 -272 16 -272
WIRE -576 -256 -688 -256
WIRE -576 -224 -608 -224
WIRE 16 -192 16 -272
WIRE 16 -192 -32 -192
WIRE 32 -192 16 -192
WIRE -304 -176 -304 -288
WIRE -112 -176 -112 -272
WIRE -112 -176 -304 -176
WIRE -80 -176 -112 -176
WIRE -720 -128 -896 -128
WIRE -576 -128 -720 -128
WIRE -576 -96 -816 -96
WIRE -576 -64 -752 -64
WIRE -304 -64 -304 -176
WIRE -304 -64 -432 -64
WIRE -80 -64 -80 -128
WIRE -576 -32 -688 -32
WIRE -576 0 -608 0
WIRE -720 96 -896 96
WIRE -576 96 -720 96
WIRE -576 128 -816 128
WIRE -576 160 -752 160
WIRE -304 160 -304 -64
WIRE -304 160 -432 160
WIRE -576 192 -688 192
WIRE -576 224 -608 224
FLAG -976 -576 0
FLAG -896 -544 0
FLAG -832 -512 0
FLAG -768 -480 0
FLAG -688 -448 0
FLAG -720 -576 Vin1
FLAG -32 -112 0
FLAG -976 -352 0
FLAG -896 -320 0
FLAG -832 -288 0
FLAG -768 -256 0
FLAG -688 -224 0
FLAG -720 -352 Vin2
FLAG -976 -128 0
FLAG -896 -96 0
FLAG -832 -64 0
FLAG -768 -32 0
FLAG -688 0 0
FLAG -720 -128 Vin3
FLAG -976 96 0
FLAG -896 128 0
FLAG -832 160 0
FLAG -768 192 0
FLAG -688 224 0
FLAG -720 96 Vin4
FLAG -80 -64 0
FLAG 32 -192 Out
SYMBOL voltage -880 -576 R90
WINDOW 0 -32 56 VBottom 2
WINDOW 3 -17 346 VTop 2
WINDOW 123 0 0 Left 0
WINDOW 39 -4 56 VBottom 2
SYMATTR InstName Vin1
SYMATTR Value PULSE(0 5 0 1ps 1ps 20ms 40ms 4)
SYMBOL voltage -800 -544 R90
WINDOW 0 -32 56 VBottom 2
WINDOW 3 32 56 VTop 2
WINDOW 123 0 0 Left 0
WINDOW 39 0 0 Left 0
SYMATTR InstName V1
SYMATTR Value 1
SYMBOL voltage -736 -512 R90
WINDOW 0 -32 56 VBottom 2
WINDOW 3 32 56 VTop 2
WINDOW 123 0 0 Left 0
WINDOW 39 0 0 Left 0
SYMATTR InstName V2
SYMATTR Value 1
SYMBOL voltage -672 -480 R90
WINDOW 0 -32 56 VBottom 2
WINDOW 3 32 56 VTop 2
WINDOW 123 0 0 Left 0
WINDOW 39 0 0 Left 0
SYMATTR InstName V3
SYMATTR Value 1
SYMBOL voltage -592 -448 R90
WINDOW 0 -32 56 VBottom 2
WINDOW 3 32 56 VTop 2
WINDOW 123 0 0 Left 0
WINDOW 39 0 0 Left 0
SYMATTR InstName V4
SYMATTR Value 1
SYMBOL 4Bit_DACV3 -512 -512 R0
SYMATTR InstName X1
SYMBOL voltage -880 -352 R90
WINDOW 0 -32 56 VBottom 2
WINDOW 3 -17 348 VTop 2
WINDOW 123 0 0 Left 0
WINDOW 39 -4 56 VBottom 2
SYMATTR InstName Vin2
SYMATTR Value PULSE(0 5 0 1ps 1ps 20ms 40ms 4)
SYMBOL voltage -800 -320 R90
WINDOW 0 -32 56 VBottom 2
WINDOW 3 32 56 VTop 2
WINDOW 123 0 0 Left 0
WINDOW 39 0 0 Left 0
SYMATTR InstName V5
SYMATTR Value 0
SYMBOL voltage -736 -288 R90
WINDOW 0 -32 56 VBottom 2
WINDOW 3 32 56 VTop 2
WINDOW 123 0 0 Left 0
WINDOW 39 0 0 Left 0
SYMATTR InstName V6
SYMATTR Value 1
SYMBOL voltage -672 -256 R90
WINDOW 0 -32 56 VBottom 2
WINDOW 3 32 56 VTop 2
WINDOW 123 0 0 Left 0
WINDOW 39 0 0 Left 0
SYMATTR InstName V7
SYMATTR Value 1
SYMBOL voltage -592 -224 R90
WINDOW 0 -32 56 VBottom 2
WINDOW 3 32 56 VTop 2
WINDOW 123 0 0 Left 0
WINDOW 39 0 0 Left 0
SYMATTR InstName V8
SYMATTR Value 1
SYMBOL 4Bit_DACV3 -512 -288 R0
SYMATTR InstName X2
SYMBOL voltage -880 -128 R90
WINDOW 0 -32 56 VBottom 2
WINDOW 3 -15 348 VTop 2
WINDOW 123 0 0 Left 0
WINDOW 39 -4 56 VBottom 2
SYMATTR InstName Vin3
SYMATTR Value PULSE(0 5 0 1ps 1ps 10ms 20ms 4)
SYMBOL voltage -800 -96 R90
WINDOW 0 -32 56 VBottom 2
WINDOW 3 32 56 VTop 2
WINDOW 123 0 0 Left 0
WINDOW 39 0 0 Left 0
SYMATTR InstName V9
SYMATTR Value 1
SYMBOL voltage -736 -64 R90
WINDOW 0 -32 56 VBottom 2
WINDOW 3 32 56 VTop 2
WINDOW 123 0 0 Left 0
WINDOW 39 0 0 Left 0
SYMATTR InstName V10
SYMATTR Value 0
SYMBOL voltage -672 -32 R90
WINDOW 0 -32 56 VBottom 2
WINDOW 3 32 56 VTop 2
WINDOW 123 0 0 Left 0
WINDOW 39 0 0 Left 0
SYMATTR InstName V11
SYMATTR Value 1
SYMBOL voltage -592 0 R90
WINDOW 0 -32 56 VBottom 2
WINDOW 3 32 56 VTop 2
WINDOW 123 0 0 Left 0
WINDOW 39 0 0 Left 0
SYMATTR InstName V12
SYMATTR Value 1
SYMBOL 4Bit_DACV3 -512 -64 R0
SYMATTR InstName X3
SYMBOL voltage -880 96 R90
WINDOW 0 -32 56 VBottom 2
WINDOW 3 -17 351 VTop 2
WINDOW 123 0 0 Left 0
WINDOW 39 -4 56 VBottom 2
SYMATTR InstName Vin4
SYMATTR Value PULSE(0 5 0 1ps 1ps 10ms 20ms 4)
SYMBOL voltage -800 128 R90
WINDOW 0 -32 56 VBottom 2
WINDOW 3 32 56 VTop 2
WINDOW 123 0 0 Left 0
WINDOW 39 0 0 Left 0
SYMATTR InstName V13
SYMATTR Value 1
SYMBOL voltage -736 160 R90
WINDOW 0 -32 56 VBottom 2
WINDOW 3 32 56 VTop 2
WINDOW 123 0 0 Left 0
WINDOW 39 0 0 Left 0
SYMATTR InstName V14
SYMATTR Value 1
SYMBOL voltage -672 192 R90
WINDOW 0 -32 56 VBottom 2
WINDOW 3 32 56 VTop 2
WINDOW 123 0 0 Left 0
WINDOW 39 0 0 Left 0
SYMATTR InstName V15
SYMATTR Value 0
SYMBOL voltage -592 224 R90
WINDOW 0 -32 56 VBottom 2
WINDOW 3 32 56 VTop 2
WINDOW 123 0 0 Left 0
WINDOW 39 0 0 Left 0
SYMATTR InstName V16
SYMATTR Value 1
SYMBOL 4Bit_DACV3 -512 160 R0
SYMATTR InstName X4
SYMBOL res 16 -288 R90
WINDOW 0 0 56 VBottom 2
WINDOW 3 32 56 VTop 2
SYMATTR InstName R2
SYMATTR Value 50k
SYMBOL cap -16 -384 R90
WINDOW 0 0 32 VBottom 2
WINDOW 3 32 32 VTop 2
SYMATTR InstName C1
SYMATTR Value 10pF
SYMBOL e -32 -96 M180
WINDOW 0 35 35 Left 2
WINDOW 3 38 67 Left 2
SYMATTR InstName E1
SYMATTR Value 0.21
TEXT -184 32 Left 2 !.tran 40ms
